*SRC=1N5711WS;DI_1N5711WS;Diodes;Si;  70.0V  15.0mA  1.00ns   Diodes Inc. 
.SUBCKT DI_1N5711WS 1 2
*        Terminals  A K
.MODEL DI_1N5711WS D (IS=315n RS=2.80 BV=70.0 IBV=10.0u CJO=2.00p M=0.333 N=2.03 TT=1.44n)
.ENDS