.model 2N3906   PNP(Is=455.9E-18 Xti=3 Eg=1.11 Vaf=33.6 Bf=204.7 Ise=7.558f
+               Ne=1.536 Ikf=.3287 Nkf=.9957 Xtb=1.5 Var=100 Br=3.72
+               Isc=529.3E-18 Nc=15.51 Ikr=11.1 Rc=.8508 Cjc=10.13p Mjc=.6993
+               Vjc=1.006 Fc=.5 Cje=10.39p Mje=.6931 Vje=.9937 Tr=10n Tf=181.2p
+               Itf=4.881m Xtf=.7939 Vtf=10 Rb=10)

.MODEL 1N4007  D(IS=3.872n RS=1.66E-02 N=1.776  
+               XTI=3.0 EG=1.110 CJO=1.519E-11 M=0.3554 
+               VJ=0.5928 FC=0.5 ISR=1.356E-09
+               NR=2.152 BV=1000.0 IBV=1.0E-03 Tt=5u)

.model 2N3904   NPN(Is=6.734f Xti=3 Eg=1.11 Vaf=74.03 Bf=416.4 Ne=1.259
+               Ise=6.734f Ikf=66.78m Xtb=1.5 Br=.7371 Nc=2 Isc=0 Ikr=0 Rc=1
+               Cjc=3.638p Mjc=.3085 Vjc=.75 Fc=.5 Cje=4.493p Mje=.2593 Vje=.75
+               Tr=239.5n Tf=301.2p Itf=.4 Vtf=4 Xtf=2 Rb=10)

.MODEL 2SA949 	PNP(IS=371.13E-15 Xti=1 BF=163.83 VAF=100 IKF=32.852E-3 
+			  	ISE=2.4464E-12 NE=1.5062 BR=500 VAR=100 IKR=20 
+				ISC=83.166E-9 NC=2.8195 NK=.49981 RC=32.569 
+				CJE=6.4281E-12 MJE=.33333 CJC=9.7165E-12 
+				MJC=.33333 TF=1.2863E-9 XTF=10 VTF=10 ITF=1 TR=10.000E-9)

.MODEL 2SC2229 	NPN(IS=3.0547E-15 Xti=1 Eg=1.11 VAF=100 BF=296.15 NE=1.2960 
+				ISE=3.0547E-15 IKF=0.18088 Xtb=1.5 BR=.3607 NC=3 ISC=10.024E-9
+				IKR=10.004E-3 RC=2.1795 CJC=8.5019E-12 VAR=100 MJC=.33333
+				Vjc=.75 Fc=.5 CJE=2.0000E-12 MJE=.33333 Vje=0.75 TR=10.000E-9
+				TF=1.3093E-9 ITF=1 VTF=10 XTF=10 NKf=.96218 RB=.1)

.MODEL KSA733 	PNP(
+				IS=3.0547E-15 
+				Xti=3
+				Eg=1.11 
+				VAF=100 
+				BF=700 
+				NE=1.2960 
+				ISE=3.0547E-15 
+				IKF=0.18088
+				Xtb=1.5
+				BR=.3607
+				NC=3
+				ISC=10.024E-9
+				IKR=10.004E-3
+				RC=0
+				CJC=8.5019E-12
+				VAR=200
+				MJC=.33333
+				Vjc=.75
+				Fc=.5
+				CJE=2.0000E-12
+				MJE=.33333
+				Vje=0.75
+				TR=10.000E-9
+				TF=1.3093E-9
+				ITF=1
+				VTF=10
+				XTF=10
+				NKf=.96218
+				RB=.1)


.MODEL Qtip42c pnp
+IS=5.65618e-10 BF=120.073 NF=1.24004 VAF=90.6071
+IKF=1.46498 ISE=6.98929e-14 NE=4 BR=2.83268
+NR=1.30331 VAR=27.1221 IKR=10 ISC=6.98934e-14
+NC=3.78125 RB=4.71382 IRB=0.234602 RBM=0.12691
+RE=0.000666374 RC=0.0927424 XTB=3.21145 XTI=1
+EG=1.05 CJE=1.93221e-10 VJE=0.4 MJE=0.259369
+TF=9.99163e-09 XTF=4.41941 VTF=6.53488 ITF=0.001
+CJC=1.0962e-10 VJC=0.731968 MJC=0.23 XCJC=0.799902
+FC=0.799995 CJS=0 VJS=0.75 MJS=0.5
+TR=1e-07 PTF=0 KF=0 AF=1
* Model generated on Dec 22, 2003
* Model format: PSpice

.MODEL Qtip41c npn
+IS=7.55826e-11 BF=260.542 NF=1.11221 VAF=100
+IKF=0.526814 ISE=1e-08 NE=2.18072 BR=26.0542
+NR=1.5 VAR=1000 IKR=3.54059 ISC=1e-08
+NC=1.63849 RB=4.56157 IRB=0.1 RBM=0.1
+RE=0.0162111 RC=0.0810556 XTB=0.1 XTI=1
+EG=1.206 CJE=1.93296e-10 VJE=0.4 MJE=0.259503
+TF=1e-08 XTF=4.06972 VTF=7.1157 ITF=0.001
+CJC=1.09657e-10 VJC=0.730921 MJC=0.23 XCJC=0.803085
+FC=0.8 CJS=0 VJS=0.75 MJS=0.5
+TR=9.01013e-08 PTF=0 KF=0 AF=1
* Model generated on Dec 27, 2003
* Model format: PSpice
