******
* Spice Model
* Item: 2N5551
* Date: 8/12/10
* Revision History: A
* ==========================================================
* This model was developed by: 
* Central Semiconductor Corp.
* 145 Adams Avenue
* Hauppauge, NY 11788
*
* These models are subject to change without notice.
* Users may not directly or indirectly re-sell or 
* re-distribute this model. This model may not 
* be modified, or altered without the consent of Central Semiconductor Corp. 
*
* For more information on this model contact
* Central Semiconductor Corp. at:
* (631) 435-1110 or Engineering@centralsemi.com
* http://www.centralsemi.com
* ==========================================================
******
*SRC=2N5551;2N5551;BJTs NPN; Si;  180.0V  0.60A  300MHz   Central Semi Central Semi
.MODEL 2N5551  NPN (
+ IS=24.240E-15
+ BF=210.11
+ VAF=100
+ IKF=.1213
+ ISE=234.58E-15
+ NE=1.5426
+ BR=.96749
+ VAR=100
+ IKR=2.7338
+ ISC=1.5687E-12
+ NC=1.8752
+ NK=.66562
+ RB=.86415
+ CJE=50.447E-12
+ VJE=.70813
+ MJE=.32821
+ CJC=8.0670E-12
+ VJC=.48157
+ MJC=.2562
+ TF=96.238E-12
+ XTF=55.940
+ VTF=20.111
+ ITF=57.419E-3
+ TR=10.000E-9 )
******
