*********************************************************************
*  (C)  Copyright 2017 Toshiba Electronic Devices & Storage Corporation
*  Date:                19/09/2017
*  File Name:           2SA1943.lib
*  Part Number:         2SA1943
*  Parameter Ver.:      Ver.1
*  Simulator:           PSpice
*  Model Call Name:     2SA1943
*  TNOM:                25 degree
*  Pin Assign:          1=Collector 2=Base 3=Emitter
*
* Operation of this model has been verified only on the OrCAD.
*********************************************************************
.SUBCKT 2SA1943 1 2 3
Q1 1 2 3 3 2SA1943_BJT
.MODEL 2SA1943_BJT PNP(
+ LEVEL = 1
+ TNOM = 25
+ IS = 4e-012
+ BF = 103
+ IKF = 35
+ ISE = 2e-009
+ NE = 2.4
+ NK = 1.02
+ XTB = 2.8
+ XTI = 2
+ TRC1 = 0
+ NF = 1
+ VAF = 30
+ VAR = 60
+ BR = 8
+ IKR = 2
+ ISC = 1.0e-21
+ NR = 1
+ NC = 1
+ RB = 1.2
+ RC = 0.06
+ RE = 0.012
+ CJC = 8.67E-010
+ MJC = 0.33
+ VJC = 0.75
+ CJE = 1e-11
+ MJE = 0.33
+ VJE = 0.75
+ EG = 1.11
+ TR = 1E-009
+ TF = 5.25E-009)
.ENDS
