*[BZT52C24LP]
*SRC=BZT52C24LP;DI_BZT52C24LP;Diodes;Zener 10V-50V; 24.0V  0.250W   Diodes Inc. QFN Zener
*SYM=HZEN
.SUBCKT DI_BZT52C24LP  1 2
*        Terminals    A   K
D1 1 2 DF
DZ 3 1 DR
VZ 2 3 21.4
.MODEL DF D ( IS=4.29p RS=28.5 N=1.10 CJO=17.6p VJ=1.00 M=0.330 TT=50.1n )
.MODEL DR D ( IS=8.58e-016 RS=54.5 N=3.00 )
.ENDS