* Library of FAIRCHILD Power MOSFETs                           
* $Revision:   1.0  $
* $Author:   HIRASUNA	  $
* $Date:   06 Jul 2001 10:10:36  $
*
*---------------------------------------------------------------
*
* This data is intended for use by customers in the design of electrical 
* circuits using FAIRCHILD semiconductors.  The usual care has been taken, 
* first, in generating the data, and second, in transcribing into  the 
* data disk.  However, no responsibility for inaccuracies can be assumed 
* by FAIRCHILD.  FAIRCHILD does not assume any liability arising out of the 
* use of the data or circuits built therefrom; neither does it convey any
* license under its patent rights nor the rights of others.
* 
* FAIRCHILD reserves the right to make changes without further notice to 
* any product described in the part herein to improve reliability, 
* function or design.
*
*
*               FAIRCHILD SEMICONDUCTOR DMOS LIBRARY	ver1.6 Feb 1997
*               ***********************************
*
*=======================================================================
*
* 2N7000 ELECTRICAL MODEL (SOT-23 Single N-Ch DMOS)
* -----------------------
.SUBCKT  2N7000/FAI 20  10  30
Rg     10    1    1
M1      2    1    3    3    DMOS    L=1u   W=1u
.MODEL DMOS NMOS (VTO={2.1*{-0.0016*TEMP+1.04}}  KP=0.35  THETA=0.086   
+ VMAX=2.2E5  LEVEL=3)        
Cgs     1    3    60p
Rd     20    4    0.3 TC=0.0075
Dds     3    4    DDS
.MODEL     DDS    D(BV={60*{0.00072*TEMP+0.982}}   M=0.36  CJO=23p   VJ=0.8)
Dbody   3   20    DBODY
.MODEL   DBODY    D(IS=1.4E-13   N=1   RS=40m   TT=100n)
Ra      4    2    0.4 TC=0.0075
Rs      3    5    10m
Ls      5    30   .5n
M2      1    8    6    6   INTER
E2      8    6    4    1   2
.MODEL   INTER    NMOS(VTO=0  KP=10   LEVEL=1)
Cgdmax  7    4    85p
Rcgd    7    4    10meg
Dgd     6    4    DGD
Rdgd    4    6    10meg
.MODEL     DGD    D(M=0.53   CJO=85p   VJ=0.12)
M3      7    9    1    1   INTER
E3      9    1    4    1   -2
.ENDS 
*$
* 2N7000 THERMAL MODEL
* ---------------------
.SUBCKT   2N7000THM   50  40  100

Rop       50   60   1meg
Cop       60   70   1u   IC=0
E_W       40   70   40   60  1meg

E_Pave    80   40   VALUE = {V(40,70)/(TIME+1n)}
R80       80   40   1k

E_Tja     100   40   VALUE = {V(80,40)*250*V(90,40)}
R100      100   40   1k

R90       90   40   1k
E_rja     90   40   table {TIME} ; Normalized 2N7000 Single Pulsed rja(t)
+(  0.0001 ,0.001402 )
+(0.000872 ,  0.0085 )
+(0.009476 ,0.057119 )
+(    0.05 ,0.146823 )
+(     0.1 ,0.205168 )
+(     0.2 ,0.279125 )
+(     0.5 ,0.401537 )
+(       1 ,0.495428 )
+(       2 ,0.576191 )
+(       5 ,0.669571 )
+(  10.683 ,0.741601 )
+( 21.2997 ,0.810463 )
+(      50 ,0.895578 )
+(     100 ,0.953184 )
+( 156.877 ,0.975353 )
+( 216.442 ,0.979892 )
.ENDS 2N7000THM
*$
*
*=======================================================================
*
* 2N7002 ELECTRICAL MODEL (SOT-23 Single N-Ch DMOS)
* -----------------------
.SUBCKT  2N7002/FAI  20  10  30
Rg     10    1    1
M1      2    1    3    3    DMOS    L=1u   W=1u
.MODEL DMOS NMOS (VTO={2.1*{-0.0016*TEMP+1.04}}  KP=0.35  THETA=0.086   
+ VMAX=2.2E5  LEVEL=3)        
Cgs     1    3    60p
Rd     20    4    0.3 TC=0.0075
Dds     3    4    DDS
.MODEL     DDS    D(BV={60*{0.00072*TEMP+0.982}}   M=0.36  CJO=23p   VJ=0.8)
Dbody   3   20    DBODY
.MODEL   DBODY    D(IS=1.4E-13   N=1   RS=40m   TT=100n)
Ra      4    2    0.4 TC=0.0075
Rs      3    5    10m
Ls      5    30   .5n
M2      1    8    6    6   INTER
E2      8    6    4    1   2
.MODEL   INTER    NMOS(VTO=0  KP=10   LEVEL=1)
Cgdmax  7    4    85p
Rcgd    7    4    10meg
Dgd     6    4    DGD
Rdgd    4    6    10meg
.MODEL     DGD    D(M=0.53   CJO=85p   VJ=0.12)
M3      7    9    1    1   INTER
E3      9    1    4    1   -2
.ENDS 
*$
* 2N7002 THERMAL MODEL
* ---------------------
.SUBCKT   2N7002THM   50  40  100

Rop       50   60   1meg
Cop       60   70   1u   IC=0
E_W       40   70   40   60  1meg

E_Pave    80   40   VALUE = {V(40,70)/(TIME+1n)}
R80       80   40   1k

E_Tja     100   40   VALUE = {V(80,40)*250*V(90,40)}
R100      100   40   1k

R90       90   40   1k
E_rja     90   40   table {TIME} ; Normalized 2N7002 Single Pulsed rja(t)
+(  0.0001 ,0.001402 )
+(0.000872 ,  0.0085 )
+(0.009476 ,0.057119 )
+(    0.05 ,0.146823 )
+(     0.1 ,0.205168 )
+(     0.2 ,0.279125 )
+(     0.5 ,0.401537 )
+(       1 ,0.495428 )
+(       2 ,0.576191 )
+(       5 ,0.669571 )
+(  10.683 ,0.741601 )
+( 21.2997 ,0.810463 )
+(      50 ,0.895578 )
+(     100 ,0.953184 )
+( 156.877 ,0.975353 )
+( 216.442 ,0.979892 )
.ENDS 2N7002THM
*$
*
 BSS123 ELECTRICAL MODEL (SOT-23 Single N-Ch DMOS)
*-----------------------
.SUBCKT  BSS123/FAI  20  10  30
Rg     10    1    1
M1      2    1    3    3    DMOS    L=1u   W=1u
.MODEL DMOS NMOS (VTO={1.3*{-0.00184*TEMP+1.046}}  KP={-0.0012*TEMP+0.6} 
+ THETA=0.086 VMAX=2.2E5  LEVEL=3)        
Cgs     1    3    50p
Rd     20    4    1.3 TC=0.00864
Dds     3    4    DDS
.MODEL     DDS    D(BV={100*{0.0008*TEMP+0.98}}   M=0.36  CJO=23p   VJ=0.8)
Dbody   3   20    DBODY
.MODEL   DBODY    D(IS=1.4E-13   N=1   RS=40m   TT=100n)
Ra      4    2    1.3 TC=0.00864
Rs      3    5    10m
Ls      5    30   .5n
M2      1    8    6    6   INTER
E2      8    6    4    1   2
.MODEL   INTER    NMOS(VTO=0  KP=10   LEVEL=1)
Cgdmax  7    4    70p
Rcgd    7    4    10meg
Dgd     6    4    DGD
Rdgd    4    6    10meg
.MODEL     DGD    D(M=0.3   CJO=20p   VJ=0.4)
M3      7    9    1    1   INTER
E3      9    1    4    1   -2
.ENDS 
*$
*=======================================================================
*
*BSS138 ELECTRICAL MODEL (SOT-23 Single N-Ch DMOS)
*-----------------------
.SUBCKT  BSS138/FAI  20  10  30
Rg     10    1    1
M1      2    1    3    3    DMOS    L=1u   W=1u
.MODEL DMOS NMOS (VTO={1.3*{-0.002*TEMP+1.05}}  KP={-0.0014*TEMP+0.685} 
+ THETA=0.086  VMAX=2.2E5  LEVEL=3)        
Cgs     1    3    40p
Rd     20    4    0.2 TC=0.0065
Dds     3    4    DDS
.MODEL     DDS    D(BV={50*{0.00084*TEMP+0.979}}   M=0.36  CJO=23p   VJ=0.8)
Dbody   3   20    DBODY
.MODEL   DBODY    D(IS=1.4E-13   N=1   RS=40m   TT=100n)
Ra      4    2    0.3 TC=0.0065
Rs      3    5    10m
Ls      5    30   .5n
M2      1    8    6    6   INTER
E2      8    6    4    1   2
.MODEL   INTER    NMOS(VTO=0  KP=10   LEVEL=1)
Cgdmax  7    4    68p
Rcgd    7    4    10meg
Dgd     6    4    DGD
Rdgd    4    6    10meg
.MODEL     DGD    D(M=0.3   CJO=68p   VJ=0.4)
M3      7    9    1    1   INTER
E3      9    1    4    1   -2
.ENDS 
*$
*=======================================================================
* FDS6680 PRELIMINARY ELECTRICAL MODEL (SO-8 Single N-Ch DMOS)
* ------------------------------------------------------------
.SUBCKT  FDS6680/FAI  20  10  30
Rg     10    1    1
M1      2    1    3    3    DMOS    L=1u   W=1u
.MODEL DMOS NMOS (VTO={2.5*{-0.00384*TEMP+1.096}}  KP={-0.05*TEMP+43}
+  THETA=0.096 VMAX=4E5  LEVEL=3)        
Cgs     1    3    1700p
Rd     20    4    1m TC=0.00376
Dds     3    4    DDS
.MODEL     DDS    D(BV={30*{0.00088*TEMP+0.978}}   M=0.3  CJO=800p   VJ=0.8)
Dbody   3   20    DBODY
.MODEL   DBODY    D(IS=1.4E-13   N=1   RS=40m   TT=100n)
Ra      4    2    2m TC=0.00376
Rs      3    5    0.5m
Ls      5    30   0.5n
M2      1    8    6    6   INTER
E2      8    6    4    1   2
.MODEL   INTER    NMOS(VTO=0  KP=10   LEVEL=1)
Cgdmax  7    4    1300p
Rcgd    7    4    10meg
Dgd     6    4    DGD
Rdgd    4    6    10meg
.MODEL     DGD    D(M=0.5   CJO=1300p   VJ=0.15)
M3      7    9    1    1   INTER
E3      9    1    4    1   -2
.ENDS 
*$
* FDS6680 THERMAL MODEL
* ---------------------
.SUBCKT   6680THM   50  40  100                 

Rop       50   60   1meg                         ; From input power, use ideal 
Cop       60   70   1u   IC=0                    ; opamp to get energy W(t),
E_W       40   70   40   60  1meg                ; assume Rin=infinite & Ro=0

E_Pave    80   40   VALUE = {V(40,70)/(TIME+1n)} ; Get average power by W(t)/t
R80       80   40   1k                  

E_Tja     100   40   VALUE = {V(80,40)*105*V(90,40)}; Tja=Pave(t)*RJA*rja(t)
R100      100   40   1k                             

R90       90   40   1k
E_rja     90   40   table {TIME}              ; Normalized FDS6680 Single Pulse rja(t) 
+ (0.0001,  0.002232)                         
+ (0.0002,  0.003156)                       
+ (0.0005,  0.00499)                       
+ (0.001,   0.007057)
+ (0.002,   0.00998)
+ (0.005,   0.01578)
+ (0.01,    0.022316)
+ (0.02,    0.03156)
+ (0.05,    0.049901)
+ (0.1,     0.070571)
+ (0.2,     0.099802)
+ (0.5,     0.157801)
+ (1,       0.223165)
+ (2,       0.304706)
+ (5,       0.430226)
+ (10,      0.532168)
+ (20,      0.641667)
+ (50,      0.789139)
+ (100,     0.876999)
+ (200,     0.940897)
+ (500,     1)
+ (999,     1)
.ENDS 6680THM
*$
*Fairchild Discretes Power & Signal Technolgies June 97 Rev.A
*=======================================================================
* FDV301N ELECTRICAL MODEL (SOT-23 Single N-Ch DMOS)
* -----------------------
.SUBCKT  FDV301N/FAI  20  10  30
Rg     10    1    1
M1      2    1    3    3    DMOS    L=1u   W=1u
.MODEL DMOS NMOS (VTO={0.9*(-0.00232*TEMP+1.058)}  KP={-0.0005*TEMP+0.32}  THETA=0.096
+ VMAX=3.8E5  LEVEL=3)
Cgs     1    3    90p
Rd     20    4    .7 TC=0.006
Dds     3    4    DDS
.MODEL     DDS    D(BV={25*(0.001*TEMP+0.975)}   M=0.36  CJO=23p   VJ=0.8)
Dbody   3   20    DBODY
.MODEL   DBODY    D(IS=1.4E-13   N=1   RS=40m   TT=100n)
Ra      4    2    .7 TC=0.006
Rs      3    5    10m
Ls      5    30   .7n
M2      1    8    6    6   INTER
E2      8    6    4    1   2
.MODEL   INTER    NMOS(VTO=0  KP=10   LEVEL=1)
Cgdmax  7    4    25p
Rcgd    7    4    10meg
Dgd     6    4    DGD
Rdgd    4    6    10meg
.MODEL     DGD    D(M=0.53   CJO=25p   VJ=0.12)
M3      7    9    1    1   INTER
E3      9    1    4    1   -2
.ENDS 
*$
* FDV301N THERMAL MODEL
* ---------------------
.SUBCKT   301NTHM   50  40  100

Rop       50   60   1meg
Cop       60   70   1u   IC=0
E_W       40   70   40   60  1meg

E_Pave    80   40   VALUE = {V(40,70)/(TIME+1n)}
R80       80   40   1k

E_Tja     100   40   VALUE = {V(80,40)*357*V(90,40)}
R100      100   40   1k

R90       90   40   1k
E_rja     90   40   table {TIME} ; Normalized SOT-23 Single Pulsed rja(t)
+(  0.0001 ,0.001402 )
+(0.000872 ,  0.0085 )
+(0.009476 ,0.057119 )
+(    0.05 ,0.146823 )
+(     0.1 ,0.205168 )
+(     0.2 ,0.279125 )
+(     0.5 ,0.401537 )
+(       1 ,0.495428 )
+(       2 ,0.576191 )
+(       5 ,0.669571 )
+(  10.683 ,0.741601 )
+( 21.2997 ,0.810463 )
+(      50 ,0.895578 )
+(     100 ,0.953184 )
+( 156.877 ,0.975353 )
+( 216.442 ,0.979892 )
.ENDS 301NTHM
*$
*
*=======================================================================
* FDV304P PRELIMINARY ELECTRICAL MODEL (SOT-23 Single P-Ch DMOS)
* ------------------------
.SUBCKT  FDV304P/FAI  20  10  30
Rg     10    1    1
M1      2    1    3    3    DMOS    L=1u   W=1u
.MODEL DMOS PMOS (VTO={-0.8*(-0.00232*TEMP+1.058)}  KP={-0.0009*TEMP+0.8225}
+   THETA=0.096 VMAX=3.8E5  LEVEL=3)
Cgs     1    3    130p
Rd     20    4    0.25 TC=0.004
Dds     4    3    DDS
.MODEL     DDS    D(BV={25*(0.00088*TEMP+0.978)}   M=0.35  CJO=100p   VJ=1.0)
Dbody   20   3    DBODY
.MODEL   DBODY    D(IS=1E-12   N=1   RS=12.7m   TT=25n)
Ra      4    2    0.25 TC=0.004
Rs      3    5    10m
Ls      5    30   0.5n
M2      1    8    6    6   INTER
E2      8    6    4    1   2
.MODEL   INTER    PMOS(VTO=0  KP=10   LEVEL=1)
Cgdmax  7    4    110p
Rcgd    7    4    10meg
Dgd     4    6    DGD
Rdgd    4    6    10meg
.MODEL     DGD    D(M=0.55   CJO=110p   VJ=0.120)
M3      7    9    1    1   INTER
E3      9    1    4    1   -2
.ENDS 
*$
* FDV304P THERMAL MODEL
* ---------------------
.SUBCKT   304PTHM   50  40  100

Rop       50   60   1meg
Cop       60   70   1u   IC=0
E_W       40   70   40   60  1meg

E_Pave    80   40   VALUE = {V(40,70)/(TIME+1n)}
R80       80   40   1k

E_Tja     100   40   VALUE = {V(80,40)*357*V(90,40)}
R100      100   40   1k

R90       90   40   1k
E_rja     90   40   table {TIME} ; Normalized SOT-23 Single Pulsed rja(t)
+(  0.0001 ,0.001402 )
+(0.000872 ,  0.0085 )
+(0.009476 ,0.057119 )
+(    0.05 ,0.146823 )
+(     0.1 ,0.205168 )
+(     0.2 ,0.279125 )
+(     0.5 ,0.401537 )
+(       1 ,0.495428 )
+(       2 ,0.576191 )
+(       5 ,0.669571 )
+(  10.683 ,0.741601 )
+( 21.2997 ,0.810463 )
+(      50 ,0.895578 )
+(     100 ,0.953184 )
+( 156.877 ,0.975353 )
+( 216.442 ,0.979892 )
.ENDS 304PTHM
*$
*
*=======================================================================
*FDP7030L ELECTRICAL MODEL
* ------------------------
.SUBCKT  FDP7030L/FAI 20  10  30
Rg     10    1    3
M1      2    1    3    3    DMOS    L=1u   W=1u
.MODEL DMOS NMOS (VTO=2  KP=65	THETA=0.086  VMAX=1.4E5  LEVEL=3)
Cgs     1    3    1800p
Rd     20    4    1.5m TC=0.0044
Dds     3    4    DDS
.MODEL     DDS    D(BV={30*{0.00144*TEMP+0.964}}   M=0.377  CJO=1083p   VJ=1.22)
Dbody   3   20    DBODY
.MODEL   DBODY    D(IS=1.4E-13   N=1   RS=37.9m   TT=55n)
Ra      4    2    1.5m TC=0.0044
Rs      3    5    0.2m
Ls      5    30   5n
M2      1    8    6    6   INTER
E2      8    6    4    1   2
.MODEL   INTER    NMOS(VTO=0  KP=10   LEVEL=1)
Cgdmax  7    4    4000p
Rcgd    7    4    10meg
Dgd     6    4    DGD
Rdgd    4    6    10meg
.MODEL     DGD    D(M=0.5   CJO=4000p   VJ=0.193)
M3      7    9    1    1   INTER
E3      9    1    4    1   -2
.ENDS 
*$
.SUBCKT   7030LTHM   50  40  100

Rop       50   60   1meg                         ; From input power, use ideal
Cop       60   70   1u   IC=0                    ; opamp to get energy W(t),
E_W       40   70   40   60  1meg                ; assume Rin=infinite & Ro=0

E_Pave    80   40   VALUE = {V(40,70)/(TIME+1n)} ; Get average power by W(t)/t
R80       80   40   1k

E_Tjc    100   40   VALUE = {V(80,40)*1.2*V(90,40)}; Tja=Pave(t)*RJC*rjc(t)
R100     100   40   1k                             ; where RJC=1.2 deg/W

R90       90   40   1k
E_rjc     90   40   table {TIME}                  ; Normalized FDP7030L Single Pulsed rjc(t)
+ (1e-005, 0.0156008)
+ (1.5e-005, 0.019107)
+ (2e-005, 0.0220629)
+ (3e-005, 0.0270214)
+ (4e-005, 0.0312016)
+ (5e-005, 0.0348845)
+ (7e-005, 0.0412759)
+ (0.0001, 0.0493341)
+ (0.00015, 0.0604217)
+ (0.0002, 0.069769)
+ (0.0003, 0.0854492)
+ (0.0004, 0.0986682)
+ (0.0005, 0.110314)
+ (0.0007, 0.130526)
+ (0.001, 0.156008)
+ (0.0015, 0.19107)
+ (0.002, 0.220629)
+ (0.00300068, 0.269488)
+ (0.004, 0.30695)
+ (0.00500875, 0.338816)
+ (0.007, 0.38417)
+ (0.0100302, 0.427714)
+ (0.015, 0.476191)
+ (0.0201171, 0.51115)
+ (0.0302385, 0.557729)
+ (0.0401603, 0.588408)
+ (0.0499347, 0.613516)
+ (0.0701816, 0.651838)
+ (0.0993117, 0.689666)
+ (0.150433,  0.734277)
+ (0.2, 0.766409)
+ (0.3, 0.814672)
+ (0.4, 0.848456)
+ (0.499014, 0.871326)
+ (0.694928, 0.901643)
+ (1, 0.929537)
+ (1.50854, 0.955371)
+ (1.99969, 0.970572)
+ (3.01226, 0.986282)
+ (4, 0.994209)
+ (4.98949, 0.997334)
+ (6.99375, 0.99942)
+ (10.009, 0.99942)
.ENDS 7030LTHM
*$
*
*=======================================================================
* FDC6322C ELECTRICAL MODEL (PRELIMINARY) (SuperSOT-6 Complementary N-Ch DMOS)
* --------------------------------------------------------------
.SUBCKT  FDC6322CN/FAI  20  10  30
Rg     10    1    1
M1      2    1    3    3    DMOS    L=1u   W=1u
.MODEL DMOS NMOS (VTO={0.9*(-0.00232*TEMP+1.058)}  KP={-0.0005*TEMP+0.32}  THETA=0.096 VMAX=VMAX=3.8E5  LEVEL=3)
Cgs     1    3    90p
Rd     20    4    .7 TC=0.006
Dds     3    4    DDS
.MODEL     DDS    D(BV={25*(0.001*TEMP+0.975)}   M=0.36  CJO=23p   VJ=0.8)
Dbody   3   20    DBODY
.MODEL   DBODY    D(IS=1.4E-13   N=1   RS=40m   TT=100n)
Ra      4    2    .7 TC=0.006
Rs      3    5    10m
Ls      5    30   .7n
M2      1    8    6    6   INTER
E2      8    6    4    1   2
.MODEL   INTER    NMOS(VTO=0  KP=10   LEVEL=1)
Cgdmax  7    4    25p
Rcgd    7    4    10meg
Dgd     6    4    DGD
Rdgd    4    6    10meg
.MODEL     DGD    D(M=0.53   CJO=25p   VJ=0.12)
M3      7    9    1    1   INTER
E3      9    1    4    1   -2
.ENDS 
*$
*
* FDC6322CP ELECTRICAL MODEL (PRELIMINARY) (SuperSOT-6 Complementary P-Ch DMOS)
* ---------------------------------------------------------------
.SUBCKT  FDC6322CP/FAI  20  10  30
Rg     10    1    1
M1      2    1    3    3    DMOS    L=1u   W=1u
.MODEL DMOS PMOS (VTO={-0.8*(-0.00232*TEMP+1.058)}  KP={-0.0009*TEMP+0.8225}
+   THETA=0.096 VMAX=3.8E5  LEVEL=3)
Cgs     1    3    130p
Rd     20    4    0.25 TC=0.004
Dds     4    3    DDS
.MODEL     DDS    D(BV={25*(0.00088*TEMP+0.978)}   M=0.35  CJO=100p   VJ=1.0)
Dbody   20   3    DBODY
.MODEL   DBODY    D(IS=1E-12   N=1   RS=12.7m   TT=25n)
Ra      4    2    0.25 TC=0.004
Rs      3    5    10m
Ls      5    30   0.5n

M2      1    8    6    6   INTER
E2      8    6    4    1   2
.MODEL   INTER    PMOS(VTO=0  KP=10   LEVEL=1)
Cgdmax  7    4    110p
Rcgd    7    4    10meg
Dgd     4    6    DGD
Rdgd    4    6    10meg
.MODEL     DGD    D(M=0.55   CJO=110p   VJ=0.120)
M3      7    9    1    1   INTER
E3      9    1    4    1   -2
.ENDS 
*$
*
*=======================================================================
* (SOIC-16 3 Phase Brushless Motor Driver) (*** PRELIMINARY MODELS ***)
* NDM3000 Q1 P-Ch ELECTRICAL MODEL
* ---------------------------
.SUBCKT  NDM3000Q1/FAI  20  10  30
Rg     10    1    3
M1      2    1    3    3    DMOS    L=1u   W=1u
.MODEL  DMOS PMOS (VTO={-1.7*{-0.00216*TEMP+1.054}} KP={-0.005*TEMP+4.525}
+ THETA=0.086  VMAX=5E5 TOX=4.25E-8 LEVEL=3)        
Cgs     1    3    200p
Rd     20    4    60m TC=0.0036
Dds     4    3    DDS 
.MODEL     DDS    D(BV={20*{0.00064*TEMP+0.984}}   M=0.25  CJO=310p   VJ=0.51)
Dbody   20   3    DBODY
.MODEL   DBODY    D(IS=1.4E-13   N=1   RS=90m   TT=29n)
Ra      4    2    59m TC=0.0036
Rs      3    5    2m
Ls      5    30   0.9n
M2      1    8    6    6   INTER
E2      8    6    4    1   2
.MODEL  INTER     PMOS(VTO=0  KP=10   LEVEL=1)
Cgdmax  7    4    1100p
Rcgd    7    4    10meg
Dgd     4    6    DGD
Rdgd    4    6    10meg
.MODEL     DGD    D(M=0.31   CJO=600p   VJ=0.18)
M3      7    9    1    1   INTER
E3      9    1    4    1   -2
.ENDS 
*$
*
* NDM3000 Q2 N-Ch ELECTRICAL MODEL
* ---------------------------
.SUBCKT  NDM3000Q2/FAI  20  10  30
Rg     10    1    3
M1      2    1    3    3    DMOS    L=1u   W=1u
.MODEL DMOS NMOS (VTO={1.5*{-0.00248*TEMP+1.062}}  KP={-0.014*TEMP+7.55}
+  THETA=0.086  VMAX=5E5  LEVEL=3)        
Cgs     1    3    359p
Rd     20    4    10m TC=0.0036
Dds     3    4    DDS
.MODEL     DDS    D(BV={20*{0.0008*TEMP+0.98}}   M=0.35  CJO=290p   VJ=0.9)
Dbody   3   20    DBODY
.MODEL   DBODY    D(IS=1.4E-13   N=1   RS=40m   TT=70n)
Ra      4    2    21m TC=0.0036
Rs      3    5    1m
Ls      5    30   0.9n
M2      1    8    6    6   INTER
E2      8    6    4    1   2
.MODEL   INTER    NMOS(VTO=0  KP=10   LEVEL=1)
Cgdmax  7    4    1050p
Rcgd    7    4    10meg
Dgd     6    4    DGD
Rdgd    4    6    10meg
.MODEL     DGD    D(M=0.325   CJO=1050p   VJ=0.039)
M3      7    9    1    1   INTER
E3      9    1    4    1   -2
.ENDS 
*$
*
* NDM3000 Q3 P-Ch ELECTRICAL MODEL
* ---------------------------
.SUBCKT  NDM3000Q3/FAI  20  10  30
Rg     10    1    3
M1      2    1    3    3    DMOS    L=1u   W=1u
.MODEL  DMOS PMOS (VTO={-1.7*{-0.00216*TEMP+1.054}}  KP={-0.005*TEMP+4.525}
+ THETA=0.086  VMAX=5E5 TOX=4.25E-8 LEVEL=3)        
Cgs     1    3    200p
Rd     20    4    60m TC=0.0036
Dds     4    3    DDS 
.MODEL     DDS    D(BV={20*{0.00064*TEMP+0.984}}   M=0.25  CJO=310p   VJ=0.51)
Dbody   20   3    DBODY
.MODEL   DBODY    D(IS=1.4E-13   N=1   RS=90m   TT=29n)
Ra      4    2    59m TC=0.0036
Rs      3    5    2m
Ls      5    30   0.9n
M2      1    8    6    6   INTER
E2      8    6    4    1   2
.MODEL  INTER     PMOS(VTO=0  KP=10   LEVEL=1)
Cgdmax  7    4    1100p
Rcgd    7    4    10meg
Dgd     4    6    DGD
Rdgd    4    6    10meg
.MODEL     DGD    D(M=0.31   CJO=600p   VJ=0.18)
M3      7    9    1    1   INTER
E3      9    1    4    1   -2
.ENDS 
*$
*
* NDM3000 Q4 N-Ch ELECTRICAL MODEL
* ---------------------------
.SUBCKT  NDM3000Q4/FAI  20  10  30
Rg     10    1    3
M1      2    1    3    3    DMOS    L=1u   W=1u
.MODEL DMOS NMOS (VTO={1.5*{-0.00248*TEMP+1.062}}  KP={-0.0014*TEMP+7.55}  
+ THETA=0.086  VMAX=5E5  LEVEL=3)        
Cgs     1    3    359p
Rd     20    4    10m TC=0.0036
Dds     3    4    DDS
.MODEL     DDS    D(BV={20*{0.0008*TEMP+0.98}}   M=0.35  CJO=290p   VJ=0.9)
Dbody   3   20    DBODY
.MODEL   DBODY    D(IS=1.4E-13   N=1   RS=40m   TT=70n)
Ra      4    2    21m TC=0.0036
Rs      3    5    1m
Ls      5    30   0.9n
M2      1    8    6    6   INTER
E2      8    6    4    1   2
.MODEL   INTER    NMOS(VTO=0  KP=10   LEVEL=1)
Cgdmax  7    4    1050p
Rcgd    7    4    10meg
Dgd     6    4    DGD
Rdgd    4    6    10meg
.MODEL     DGD    D(M=0.325   CJO=1050p   VJ=0.039)
M3      7    9    1    1   INTER
E3      9    1    4    1   -2
.ENDS 
*$
*
* NDM3000 Q5 P-Ch ELECTRICAL MODEL
* ---------------------------
.SUBCKT  NDM3000Q5/FAI  20  10  30
Rg     10    1    3
M1      2    1    3    3    DMOS    L=1u   W=1u
.MODEL  DMOS PMOS (VTO={-1.7*{-0.00216*TEMP+1.054}}  KP={-0.005*TEMP+4.525}
+ THETA=0.086 VMAX=5E5 TOX=4.25E-8 LEVEL=3)        
Cgs     1    3    200p
Rd     20    4    60m TC=0.0036
Dds     4    3    DDS 
.MODEL     DDS    D(BV={20*{0.00064*TEMP+0.984}}   M=0.25  CJO=310p   VJ=0.51)
Dbody   20   3    DBODY
.MODEL   DBODY    D(IS=1.4E-13   N=1   RS=90m   TT=29n)
Ra      4    2    59m TC=0.0036
Rs      3    5    2m
Ls      5    30   0.9n
M2      1    8    6    6   INTER
E2      8    6    4    1   2
.MODEL  INTER     PMOS(VTO=0  KP=10   LEVEL=1)
Cgdmax  7    4    1100p
Rcgd    7    4    10meg
Dgd     4    6    DGD
Rdgd    4    6    10meg
.MODEL     DGD    D(M=0.31   CJO=600p   VJ=0.18)
M3      7    9    1    1   INTER
E3      9    1    4    1   -2
.ENDS 
*$
*
* NDM3000 Q6 N-Ch ELECTRICAL MODEL
* ---------------------------
.SUBCKT  NDM3000Q6/FAI  20  10  30
Rg     10    1    3
M1      2    1    3    3    DMOS    L=1u   W=1u
.MODEL DMOS NMOS (VTO={1.5*{-0.00248*TEMP+1.062}}  KP={-0.014*TEMP+7.55} 
+ THETA=0.086  VMAX=5E5  LEVEL=3)        
Cgs     1    3    359p
Rd     20    4    10m TC=0.0036
Dds     3    4    DDS
.MODEL     DDS    D(BV={20*{0.0008*TEMP+0.98}}   M=0.35  CJO=290p   VJ=0.9)
Dbody   3   20    DBODY
.MODEL   DBODY    D(IS=1.4E-13   N=1   RS=40m   TT=70n)
Ra      4    2    21m TC=0.0036
Rs      3    5    1m
Ls      5    30   0.9n
M2      1    8    6    6   INTER
E2      8    6    4    1   2
.MODEL   INTER    NMOS(VTO=0  KP=10   LEVEL=1)
Cgdmax  7    4    1050p
Rcgd    7    4    10meg
Dgd     6    4    DGD
Rdgd    4    6    10meg
.MODEL     DGD    D(M=0.325   CJO=1050p   VJ=0.039)
M3      7    9    1    1   INTER
E3      9    1    4    1   -2
.ENDS 
*$
*
* NDM3000 QP P-Ch THERMAL MODEL        ( *** PRELIMINARY MODEL ***)
* ------------------------
.SUBCKT   NDM3000QPTHM   50  40  100                 

Rop       50   60   1meg                         ; From input power, use ideal 
Cop       60   70   1u   IC=0                    ; opamp to get energy W(t),
E_W       40   70   40   60  1meg                ; assume Rin=infinite & Ro=0

E_Pave    80   40   VALUE = {V(40,70)/(TIME+1n)} ; Get average power by W(t)/t
R80       80   40   1k                  

E_Tja     100   40   VALUE = {V(80,40)*90*V(90,40)}; Tja=Pave(t)*RJA*rja(t)
R100      100   40   1k                             

R90       90   40   1k
E_rja     90   40   table {TIME}              ; Normalized NDM3000 QP P-Ch Single Pulsed rja(t)
+ (0.0001,  0.002232)                         
+ (0.0002,  0.003156)                         
+ (0.0005,  0.00499)                         
+ (0.001,   0.007057)
+ (0.002,   0.00998)
+ (0.005,   0.01578)
+ (0.01,    0.022316)
+ (0.02,    0.03156)
+ (0.05,    0.049901)
+ (0.1,     0.070571)
+ (0.2,     0.099802)
+ (0.5,     0.157801)
+ (1,       0.223165)
+ (2,       0.304706)
+ (5,       0.430226)
+ (10,      0.532168)
+ (20,      0.641667)
+ (50,      0.789139)
+ (100,     0.876999)
+ (200,     0.940897)
+ (500,     1)
+ (999,     1)
.ENDS NDM3000QPTHM
*$
*
* NDM3000 QN N-Ch THERMAL MODEL      ( *** PRELIMINARY MODEL ***)
* ------------------------
.SUBCKT   NDM3000QNTHM   50  40  100                 

Rop       50   60   1meg                         ; From input power, use ideal 
Cop       60   70   1u   IC=0                    ; opamp to get energy W(t),
E_W       40   70   40   60  1meg                ; assume Rin=infinite & Ro=0

E_Pave    80   40   VALUE = {V(40,70)/(TIME+1n)} ; Get average power by W(t)/t
R80       80   40   1k                  

E_Tja     100   40   VALUE = {V(80,40)*90*V(90,40)}; Tja=Pave(t)*RJA*rja(t)
R100      100   40   1k                             

R90       90   40   1k
E_rja     90   40   table {TIME}              ; Normalized NDM3000 QN N-Ch Single Pulsed rja(t)
+ (0.0001,  0.002232)                        
+ (0.0002,  0.003156)                        
+ (0.0005,  0.00499)                         
+ (0.001,   0.007057)
+ (0.002,   0.00998)
+ (0.005,   0.01578)
+ (0.01,    0.022316)
+ (0.02,    0.03156)
+ (0.05,    0.049901)+ (0.1,     0.070571)
+ (0.2,     0.099802)
+ (0.5,     0.157801)
+ (1,       0.223165)
+ (2,       0.304706)
+ (5,       0.430226)
+ (10,      0.532168)
+ (20,      0.641667)
+ (50,      0.789139)
+ (100,     0.876999)
+ (200,     0.940897)
+ (500,     1)
+ (999,     1)
.ENDS NDM3000QNTHM
*$
*
*=======================================================================
*
* NDP405A ELECTRICAL MODEL (TO-220 N-Ch DMOS)
* -----------------------------------------------
.SUBCKT  NDP405A/FAI  20  10  30
Rg  10  1  1
M1   2  1  3   3   DMOS    L=1u   W=1u
.MODEL  DMOS  NMOS(VTO={3.4*{-0.00264*TEMP+1.066}}  KP={-0.014*TEMP+6.55}  
+ THETA=0.056  VMAX=1.9E5  LEVEL=3)       
Cgs   1  3   310p                     
Rd   20  4   7.24m TC=0.0064
Dds   3  4   DDS
.MODEL   DDS   D(BV={50*{0.0008*TEMP+0.98}}   M=0.34  CJO=312p   VJ=1.2)
Dbody   3   20   DBODY
.MODEL   DBODY   D(IS=1.4E-13   N=1   RS=116m   TT=52n)
Ra    4    2    33m TC=0.0064
Rs    3    5    2m
Ls    5    30   5n
M2    1    8   6   6   INTER
E2    8    6   4   1   2
.MODEL   INTER   NMOS(VTO=0  KP=10   LEVEL=1)
Cgdmax   7   4    600p
Rcgd     7   4    10meg
Dgd      6   4    DGD
Rdgd     4   6    10meg
.MODEL    DGD   D(M=0.54   CJO=900p   VJ=0.214)
M3     7   9   1   1   INTER
E3     9   1   4   1   -2
.ENDS 
*$
*
* THERMAL MODEL OF NDP405A,  NDP405AE,  NDB405A,  NDB405AE
*                  NDP405AL, NDP405AEL, NDB405AL, NDB405AEL
*                  NDP405B,  NDP405BE,  NDB405B,  NDB405BE
*                  NDP405BL, NDP405BEL, NDB405BL, NDB405BEL
* ---------------------------------------------------------
.SUBCKT   405THMAL   50  40  100                 

Rop       50   60   1meg                         ; From input power, use ideal 
Cop       60   70   1u   IC=0                    ; opamp to get energy W(t),
E_W       40   70   40   60  1meg                ; assume Rin=infinite & Ro=0

E_Pave    80   40   VALUE = {V(40,70)/(TIME+1n)} ; Get average power by W(t)/t
R80       80   40   1k                  

E_Tjc    100   40   VALUE = {V(80,40)*3*V(90,40)}; Tjc=Pave(t)*RJC*rjc(t)
R100     100   40   1k                          

R90       90   40   1k
E_rjc     90   40    table {TIME}                ; Normalized NDx405x Single Pulsed rjc(t) 
+ (1e-005, 0.0248642)                            
+ (1.5e-005, 0.0304524)                         
+ (2e-005, 0.0351633)
+ (3e-005, 0.0430661)
+ (4e-005, 0.0497285)
+ (5e-005, 0.0555981)
+ (7e-005, 0.0657846)
+ (0.0001, 0.0786276)
+ (0.00015, 0.0962988)
+ (0.0002, 0.111196)
+ (0.0003, 0.136187)
+ (0.0004, 0.157255)
+ (0.0005, 0.175817)
+ (0.0007, 0.208029)
+ (0.001, 0.248642)
+ (0.0015, 0.304523)
+ (0.002, 0.351633)
+ (0.003, 0.424229)
+ (0.00400314, 0.475474)
+ (0.005, 0.510436)
+ (0.00700608, 0.558074)
+ (0.0100093, 0.605311)
+ (0.0148373, 0.650478)
+ (0.0200164, 0.686392)
+ (0.0299671, 0.727997)
+ (0.04, 0.753176)
+ (0.0501139, 0.774458)
+ (0.0698429, 0.800599)
+ (0.0999065, 0.825129)
+ (0.15, 0.852995)
+ (0.2, 0.871143)
+ (0.301229, 0.897258)
+ (0.398779, 0.914537)
+ (0.5, 0.92559)
+ (0.698881, 0.940554)
+ (0.999652, 0.954374)
+ (1.50072, 0.966226)
+ (2.00603, 0.973845)
+ (2.95383, 0.981524)
+ (3.9868, 0.987046)
+ (4.98026, 0.991486)
+ (6.85319, 0.995946)
+ (10, 1)
.ENDS 405THMAL
*$
*=======================================================================
*
* NDP405AE ELECTRICAL MODEL (TO-220 N-Ch DMOS)
* ------------------------
.SUBCKT  NDP405AE/FAI  20  10  30
Rg  10  1  1
M1   2  1  3   3   DMOS    L=1u   W=1u
.MODEL  DMOS  NMOS(VTO={3.4*{-0.00264*TEMP+1.066}}  KP={-0.014*TEMP+6.55}  
+ THETA=0.056 VMAX=1.9E5  LEVEL=3)       
Cgs   1  3   310p                     
Rd   20  4   7.24m TC=0.0064
Dds   3  4   DDS
.MODEL   DDS   D(BV={50*{0.0008*TEMP+0.98}}   M=0.34  CJO=312p   VJ=1.2)
Dbody   3   20   DBODY
.MODEL   DBODY   D(IS=1.4E-13   N=1   RS=116m   TT=52n)
Ra    4    2    33m TC=0.0064
Rs    3    5    2m
Ls    5    30   5n