*Fairchild Discretes Power & Signal Technolgies June 97 Rev.A
*=======================================================================
* FDV301N ELECTRICAL MODEL (SOT-23 Single N-Ch DMOS)
* -----------------------
.SUBCKT  FDV301N/FAI  20  10  30
Rg     10    1    1
M1      2    1    3    3    DMOS    L=1u   W=1u
.MODEL DMOS NMOS (VTO={0.9*(-0.00232*TEMP+1.058)}  KP={-0.0005*TEMP+0.32}  THETA=0.096 VMAX=3.8E5  LEVEL=3)
Cgs     1    3    90p
Rd     20    4    .7 TC=0.006
Dds     3    4    DDS
.MODEL     DDS    D(BV={25*(0.001*TEMP+0.975)}   M=0.36  CJO=23p   VJ=0.8)
Dbody   3   20    DBODY
.MODEL   DBODY    D(IS=1.4E-13   N=1   RS=40m   TT=100n)
Ra      4    2    .7 TC=0.006
Rs      3    5    10m
Ls      5    30   .7n
M2      1    8    6    6   INTER
E2      8    6    4    1   2
.MODEL   INTER    NMOS(VTO=0  KP=10   LEVEL=1)
Cgdmax  7    4    25p
Rcgd    7    4    10meg
Dgd     6    4    DGD
Rdgd    4    6    10meg
.MODEL     DGD    D(M=0.53   CJO=25p   VJ=0.12)
M3      7    9    1    1   INTER
E3      9    1    4    1   -2
.ENDS 
*$
* FDV301N THERMAL MODEL
* ---------------------
.SUBCKT   301NTHM   50  40  100

Rop       50   60   1meg
Cop       60   70   1u   IC=0
E_W       40   70   40   60  1meg

E_Pave    80   40   VALUE = {V(40,70)/(TIME+1n)}
R80       80   40   1k

E_Tja     100   40   VALUE = {V(80,40)*357*V(90,40)}
R100      100   40   1k

R90       90   40   1k
E_rja     90   40   table {TIME} ; Normalized SOT-23 Single Pulsed rja(t)
+(  0.0001 ,0.001402 )
+(0.000872 ,  0.0085 )
+(0.009476 ,0.057119 )
+(    0.05 ,0.146823 )
+(     0.1 ,0.205168 )
+(     0.2 ,0.279125 )
+(     0.5 ,0.401537 )
+(       1 ,0.495428 )
+(       2 ,0.576191 )
+(       5 ,0.669571 )
+(  10.683 ,0.741601 )
+( 21.2997 ,0.810463 )
+(      50 ,0.895578 )
+(     100 ,0.953184 )
+( 156.877 ,0.975353 )
+( 216.442 ,0.979892 )
.ENDS 301NTHM
