*----------------------------------------------------------------------
* SPICE Model generated by Murata Manufacturing Co., Ltd.
* Copyright(C) Murata Manufacturing Co., Ltd.
* MURATA P/N : LQP02HQ10NJ02
* Property : L = 10[nH]
*----------------------------------------------------------------------
* Applicable Conditions:
*   Frequency Range = 50MHz - 20GHz
*   Temperature = 25 degC
*   DC Bias Current = 0 A
*   Small Signal Operation
*----------------------------------------------------------------------
.SUBCKT LQP02HQ10NJ02 port1 port2
C1 port1 port2 6.25e-14
L2 port1 1 1.64e-8
R2 1 port2 8.13e-1
R3 port1 port2 2.11e+4
L4 port1 2 2.39e-7
R4 2 port2 944
L5 port1 3 1.49e-7
R5 3 port2 100
L6 port1 4 3.99e-8
R6 4 port2 1.55
.ENDS LQP02HQ10NJ02
*----------------------------------------------------------------------
