.model 2SD669 NPN (IS=5p NF=1 BF=250 ISE=5p NE=1.5 IKF=3 VAF=150 RB=1 RC=0.25 RE=0.25 TF=1.14ns CJC=50p )
.model 2SB649 PNP (IS=5p NF=1 BF=250 ISE=10p NE=1.5 IKF=3 VAF=75 RB=1 RC=0.25 RE=0.25 TF=1.14ns CJC=50p )
.model 2SC4793 NPN (IS=0.1p BF=130 NF=1 ISE=0.1p RB=1 RE=0.1 RC=0.2 VAF=500 IKF=3 TF=1.6ns CJC=100p )
.model 2SA1837 PNP (IS=0.1p BF=130 NF=1 ISE=0.1p RB=1 RE=0.1 RC=0.2 VAF=500 IKF=3 TF=2.28n CJC=150p )